*SPEF "IEEE 1481-1998"
*DESIGN "counter"
*DATE "Mon Apr 13 15:24:43 2026"
*VENDOR "Cadence Design Systems, Inc."
*PROGRAM "Innovus"
*VERSION "20.14-s095_1"
*DESIGN_FLOW "PIN_CAP NONE" "NAME_SCOPE LOCAL"
*DIVIDER /
*DELIMITER :
*BUS_DELIMITER []
*T_UNIT 1 NS
*C_UNIT 1 PF
*R_UNIT 1 OHM
*L_UNIT 1 HENRY

// MMMC spef file for corner 'RC'

*NAME_MAP

*1 FE_DBTN0_count_2_65
*2 clk
*3 m
*4 rst
*5 count[7]
*6 count[6]
*7 count[5]
*8 count[4]
*9 count[3]
*10 count[2]
*11 count[1]
*12 count[0]
*13 count\[0\]_63
*14 count\[2\]_65
*15 count\[3\]_66
*16 n_0
*17 n_1
*18 n_2
*19 n_3
*20 n_4
*21 n_6
*22 n_7
*23 n_8
*24 n_9
*25 n_11
*26 n_12
*27 n_13
*28 n_14
*29 n_15
*30 n_16
*31 n_17
*32 n_18
*33 n_19
*34 n_22
*35 n_23
*36 n_24
*37 n_25
*38 n_27
*39 n_28
*40 n_30
*41 n_31
*42 n_32
*43 n_33
*44 n_36
*45 n_37
*46 n_38
*47 n_39
*48 n_40
*49 n_41
*50 n_44
*51 n_45
*52 n_46
*53 n_47
*54 n_48
*55 n_76
*56 n_87
*57 n_89
*58 n_90
*59 n_92
*60 n_93
*61 n_94
*62 FE_DBTC0_count_2_65
*63 count_reg\[7\]
*64 count_reg\[6\]
*65 count_reg\[4\]
*66 count_reg\[5\]
*67 count_reg\[3\]
*68 count_reg\[2\]
*69 g2994__2398
*70 g2999__5107
*71 g2996__6260
*72 g3001__4319
*73 count_reg\[1\]
*74 g3002__8428
*75 g3000__6783
*76 g3003__3680
*77 g3009__2802
*78 g3012__1705
*79 g3013__5122
*80 g3005__8246
*81 g3008__6131
*82 g3007__1881
*83 g3011__5115
*84 g3029__7482
*85 g3016__4733
*86 g3014__6161
*87 g3031__9315
*88 g3006__9945
*89 g3033__2883
*90 count_reg\[0\]
*91 g3020__1666
*92 g3021__7410
*93 g3015__6417
*94 g3018__2398
*95 g3019__5107
*96 g3032__6260
*97 g3027__4319
*98 g3030__8428
*99 g3026__6783
*100 g3022__3680
*101 g3028__1617
*102 g3034__2802
*103 g3023__1705
*104 g3036
*105 g3044
*106 g3041
*107 g3042
*108 g3037
*109 g3038
*110 fopt3059
*111 fopt3067
*112 fopt3068
*113 fopt7
*114 fopt10
*115 g2
*116 g3
*117 g3035__3069
*118 g3071
*119 g3072


*PORTS

*2 I *C 19.3 35.15
*3 I *C 17.7 0
*4 I *C 17.7 35.15
*5 O *C 0 24.985
*6 O *C 13.3 35.15
*7 O *C 0 18.715
*8 O *C 0 18.525
*9 O *C 27.9 35.15
*10 O *C 15.7 0
*11 O *C 19.5 0
*12 O *C 38 14.915


*D_NET *1 0.00341358

*CONN
*I *68:SI I *C 27.9 14.155 *L 0.000388 *D SDFFRHQX8
*I *84:A I *C 24.9 19.095 *L 0.000291 *D CLKAND2X2
*I *85:A I *C 19.7 19.475 *L 0.000531 *D CLKAND2X3
*I *89:B I *C 14.1 17.765 *L 0.000785 *D OR2X6
*I *62:Y O *C 15.16 9.1275 *L 0 *D INVX16
*I *110:A I *C 15.5325 9.12 *L 0.000212 *D INVXL

*CAP
1 *1:3 0.000264803
2 *1:4 0.000264803
3 *1:5 0.000186913
4 *1:6 0.000510895
5 *1:8 0.000323982
6 *1:10 2.01941e-05
7 *1:11 4.03881e-05
8 *1:12 2.01941e-05
9 *1:13 4.03881e-05
10 *1:15 0.000273669
11 *1:16 0.000273669
12 *1:17 3.00533e-05
13 *1:18 0.000473699
14 *1:19 7.44521e-05
15 *1:20 0.000453491
16 *1:21 7.44521e-05
17 *1:22 1.22984e-05
18 *1:23 9.84539e-06
19 *1:25 1.22984e-05
20 *1:26 1.22984e-05
21 *1:28 4.40452e-06
22 *1:29 1.22984e-05
23 *1:30 7.51359e-06
24 *1:31 4.92269e-06
25 *1:32 3.10907e-06
26 *1:33 6.73632e-06
27 *1:35 1.81362e-06

*RES
1 *1:35 *110:A 7.90667
2 *1:33 *1:35 0.116811
3 *1:32 *62:Y 7.90667
4 *1:31 *1:33 0.317058
5 *1:30 *1:32 0.200247
6 *1:29 *1:31 7.90667
7 *1:28 *1:30 0.283683
8 *1:26 *1:29 0.672127
9 *1:25 *1:28 7.90667
10 *1:24 *89:B 7.90667
11 *1:23 *1:26 7.90667
12 *1:22 *1:25 0.672127
13 *1:21 *1:24 7.90667
14 *1:20 *1:23 0.634115
15 *1:20 *1:22 7.90667
16 *1:19 *1:21 4.04529
17 *1:18 *1:20 28.5375
18 *1:18 *1:19 7.90667
19 *1:17 *1:18 1.90434
20 *1:16 *1:17 7.90667
21 *1:15 *1:16 14.8474
22 *1:13 *1:15 7.90667
23 *1:12 *85:A 7.90667
24 *1:11 *1:13 2.54076
25 *1:10 *1:12 1.27038
26 *1:8 *1:11 7.90667
27 *1:8 *1:10 7.90667
28 *1:7 *84:A 7.90667
29 *1:6 *1:8 17.5588
30 *1:6 *1:7 7.90667
31 *1:5 *1:6 10.1301
32 *1:4 *1:5 7.90667
33 *1:3 *1:4 16.5304
34 *1:2 *1:3 7.90667
35 *1:1 *1:2 7.90667
36 *68:SI *1:1 7.90667
*END

*D_NET *2 0.00606157

*CONN
*I *68:CK I *C 24.1 14.155 *L 0.00021 *D SDFFRHQX8
*I *90:CK I *C 23.9 20.805 *L 0.00021 *D DFFRHQX8
*I *73:CK I *C 23.1 15.865 *L 0.00021 *D SDFFRHQX8
*I *66:CK I *C 11.7 15.865 *L 0.00021 *D SDFFRHQX8
*I *65:CK I *C 20.7 24.415 *L 0.00021 *D SDFFRHQX8
*I *67:CK I *C 25.7 24.415 *L 0.00021 *D SDFFRHQX8
*P *2 I *C 19.3 35.15 *L 0
*I *64:CK I *C 15.9 26.125 *L 0.00021 *D SDFFRHQX8
*I *63:CK I *C 9.3 24.415 *L 0.00021 *D SDFFRHQX1

*CAP
1 *2:1 9.2197e-05
2 *2:2 9.2197e-05
3 *2:3 1.24668e-05
4 *2:4 6.23338e-05
5 *2:5 0.000263479
6 *2:6 0.000755928
7 *2:7 0.000465419
8 *2:9 0.000706061
9 *2:10 0.000212038
10 *2:14 1.0097e-05
11 *2:15 0.000199374
12 *2:17 0.000112148
13 *2:18 0.000199374
14 *2:19 0.000112148
15 *2:20 4.03881e-05
16 *2:21 1.0097e-05
17 *2:22 2.01941e-05
18 *2:23 4.03881e-05
19 *2:24 1.0097e-05
20 *2:25 2.01941e-05
21 *2:26 8.7226e-05
22 *2:29 8.7226e-05
23 *2:30 4.03881e-05
24 *2:31 0.000514084
25 *2 0.000473696
26 *2:33 0.000211521
27 *2:34 0.000273565
28 *2:36 6.20434e-05
29 *2:38 9.01599e-05
30 *2:39 9.01599e-05
31 *2:40 0.000347443
32 *2:41 0.000347443

*RES
1 *2:42 *63:CK 7.90667
2 *2:41 *2:42 7.90667
3 *2:40 *2:41 18.878
4 *2:39 *2:40 7.90667
5 *2:38 *2:39 5.71301
6 *2:36 *2:38 7.90667
7 *2:35 *64:CK 7.90667
8 *2:34 *2:36 3.37107
9 *2:34 *2:35 7.90667
10 *2:33 *2:34 11.474
11 *2:31 *2:33 7.90667
12 *2:31 *2 30.1609
13 *2:30 *2:31 2.54076
14 *2:29 *2:30 7.90667
15 *2:26 *2:29 4.72738
16 *2:25 *67:CK 7.90667
17 *2:24 *65:CK 7.90667
18 *2:23 *2:26 7.90667
19 *2:22 *2:25 1.27038
20 *2:21 *2:24 0.63519
21 *2:20 *2:23 2.54076
22 *2:19 *2:22 7.90667
23 *2:18 *2:21 7.90667
24 *2:18 *2:20 7.90667
25 *2:17 *2:19 6.07806
26 *2:15 *2:18 10.8054
27 *2:14 *2:17 7.90667
28 *2:13 *66:CK 7.90667
29 *2:10 *2:15 7.90667
30 *2:10 *2:14 0.63519
31 *2:9 *2:13 7.90667
32 *2:8 *73:CK 7.90667
33 *2:7 *90:CK 7.90667
34 *2:7 *2:10 12.7038
35 *2:6 *2:9 38.412
36 *2:6 *2:8 7.90667
37 *2:5 *2:7 16.5214
38 *2:4 *2:6 2.70194
39 *2:4 *2:5 7.90667
40 *2:3 *2:4 0.675485
41 *2:2 *2:3 7.90667
42 *2:1 *2:2 5.72567
43 *68:CK *2:1 7.90667
*END

*D_NET *3 0.00648781

*CONN
*I *98:A I *C 9.3 21.185 *L 0.000291 *D CLKAND2X2
*I *119:A I *C 12.3 22.515 *L 0.00079 *D OR4X6
*I *101:A I *C 14.9 20.995 *L 0.000793 *D NOR2X2
*I *105:A I *C 17.9 12.635 *L 0.000801 *D INVX2
*I *74:A1 I *C 19.1 12.635 *L 0.00161 *D OAI31X4
*I *88:A I *C 17.9 9.025 *L 0.00161 *D NOR3X4
*I *94:A I *C 11.1 9.025 *L 0.000793 *D NOR2X2
*P *3 I *C 17.7 0 *L 0
*I *95:A I *C 22.9 10.735 *L 0.000793 *D NOR2X2
*I *92:A I *C 25.7 9.025 *L 0.000211 *D AND2X2
*I *73:D I *C 25.9 15.675 *L 0.000388 *D SDFFRHQX8

*CAP
1 *3:1 1.00178e-05
2 *3:2 1.00178e-05
3 *3:3 0.000198539
4 *3:4 0.000198539
5 *3:5 9.01599e-05
6 *3:6 6.01066e-05
7 *3:7 3.00533e-05
8 *3:8 1.24087e-05
9 *3:9 0.000148904
10 *3:10 1.24087e-05
11 *3:11 0.000148904
12 *3:13 1.00178e-05
13 *3:14 0.000397177
14 *3:16 1.00178e-05
15 *3:17 0.000397177
16 *3:19 0.00014775
17 *3:20 0.00014775
18 *3:21 2.04882e-05
19 *3:22 0.000184394
20 *3:23 3.74003e-05
21 *3:24 0.000163906
22 *3:25 0.000112201
23 *3:26 1.24668e-05
24 *3:27 0.000124668
25 *3:28 1.02441e-05
26 *3:29 1.24668e-05
27 *3:30 4.9867e-05
28 *3:31 1.02441e-05
29 *3:32 1.02441e-05
30 *3:33 4.09765e-05
31 *3:34 0.000122929
32 *3:35 1.02441e-05
33 *3:37 0.00052245
34 *3:38 0.000122929
35 *3:40 0.00041882
36 *3:41 0.000481473
37 *3:42 0.000187001
38 *3:43 4.9867e-05
39 *3:44 0.000368953
40 *3:45 3.74003e-05
41 *3:46 0.000361536
42 *3:49 3.74003e-05
43 *3:50 0.000187001
44 *3:51 1.02441e-05
45 *3:54 5.12206e-06
46 *3:55 1.24668e-05
47 *3:56 8.19529e-05
48 *3:57 1.02441e-05
49 *3 5.12206e-06
50 *3:59 0.000276591
51 *3:60 8.19529e-05
52 *3:62 0.000276591

*RES
1 *3:62 *73:D 7.90667
2 *3:60 *92:A 7.90667
3 *3:59 *3:62 17.177
4 *3:57 *95:A 7.90667
5 *3:56 *3:60 5.08949
6 *3:55 *3:59 7.90667
7 *3:54 *3 0.318093
8 *3:51 *3:57 0.636186
9 *3:50 *3:56 7.90667
10 *3:50 *3:55 0.675485
11 *3:49 *3:54 7.90667
12 *3:48 *94:A 7.90667
13 *3:47 *88:A 7.90667
14 *3:46 *3:51 7.90667
15 *3:46 *3:50 9.45679
16 *3:45 *3:49 2.02645
17 *3:44 *3:48 7.90667
18 *3:43 *3:47 7.90667
19 *3:42 *3:46 10.1323
20 *3:41 *3:45 7.90667
21 *3:40 *3:44 20.1638
22 *3:40 *3:43 2.70194
23 *3:38 *3:42 7.90667
24 *3:37 *3:41 29.9007
25 *3:37 *3:40 7.90667
26 *3:35 *74:A1 7.90667
27 *3:34 *3:38 7.63423
28 *3:33 *3:37 2.54474
29 *3:32 *105:A 7.90667
30 *3:31 *3:35 0.636186
31 *3:30 *3:34 7.90667
32 *3:29 *3:33 7.90667
33 *3:28 *3:32 0.636186
34 *3:27 *3:31 7.90667
35 *3:27 *3:30 2.70194
36 *3:26 *3:29 0.675485
37 *3:25 *3:28 7.90667
38 *3:25 *3:27 4.05291
39 *3:24 *3:26 7.90667
40 *3:23 *3:25 2.02645
41 *3:22 *3:24 10.179
42 *3:22 *3:23 7.90667
43 *3:21 *3:22 1.27237
44 *3:20 *3:21 7.90667
45 *3:19 *3:20 8.06889
46 *3:17 *3:19 7.90667
47 *3:16 *101:A 7.90667
48 *3:14 *3:17 25.3776
49 *3:13 *3:16 0.634779
50 *3:12 *119:A 7.90667
51 *3:11 *3:14 7.90667
52 *3:11 *3:13 7.90667
53 *3:10 *3:12 7.90667
54 *3:9 *3:11 8.09058
55 *3:8 *3:10 0.674215
56 *3:7 *3:9 7.90667
57 *3:6 *3:8 7.90667
58 *3:5 *3:7 1.90434
59 *3:5 *3:6 3.80867
60 *3:4 *3:5 7.90667
61 *3:3 *3:4 10.7874
62 *3:2 *3:3 7.90667
63 *3:1 *3:2 0.634779
64 *98:A *3:1 7.90667
*END

*D_NET *4 0.00552882

*CONN
*I *68:RN I *C 22.5 13.965 *L 0.00149 *D SDFFRHQX8
*I *73:RN I *C 21.5 15.675 *L 0.00149 *D SDFFRHQX8
*I *90:RN I *C 19.1 20.805 *L 0.00149 *D DFFRHQX8
*I *65:RN I *C 19.1 24.225 *L 0.00149 *D SDFFRHQX8
*I *67:RN I *C 24.1 24.225 *L 0.00149 *D SDFFRHQX8
*P *4 I *C 17.7 35.15 *L 0
*I *64:RN I *C 14.3 25.935 *L 0.00149 *D SDFFRHQX8
*I *63:RN I *C 10.3 24.415 *L 0.000617 *D SDFFRHQX1
*I *66:RN I *C 10.1 15.675 *L 0.00149 *D SDFFRHQX8

*CAP
1 *4:1 1.02441e-05
2 *4:2 1.02441e-05
3 *4:3 6.23338e-05
4 *4:4 6.23338e-05
5 *4:5 8.19529e-05
6 *4:6 0.000325385
7 *4:7 0.000243432
8 *4:9 0.00014953
9 *4:11 0.00014953
10 *4:13 3.02911e-05
11 *4:14 0.000212038
12 *4:15 0.000191844
13 *4:17 1.0097e-05
14 *4:19 0.000323982
15 *4:20 0.000311521
16 *4:21 1.24609e-05
17 *4:22 1.0097e-05
18 *4:23 6.05822e-05
19 *4:24 1.0097e-05
20 *4:25 6.05822e-05
21 *4:27 7.47651e-05
22 *4:28 7.47651e-05
23 *4:29 2.01941e-05
24 *4:30 0.000503987
25 *4 0.000483793
26 *4:32 0.000211104
27 *4:33 0.000273147
28 *4:35 6.20434e-05
29 *4:37 7.01243e-05
30 *4:38 7.01243e-05
31 *4:39 0.00018613
32 *4:40 0.000198539
33 *4:41 1.00178e-05
34 *4:42 1.24087e-05
35 *4:43 1.00178e-05
36 *4:44 0.000469542
37 *4:46 0.000469542

*RES
1 *4:46 *66:RN 7.90667
2 *4:44 *4:46 29.8296
3 *4:43 *63:RN 7.90667
4 *4:42 *4:44 7.90667
5 *4:41 *4:43 0.634779
6 *4:40 *4:42 0.674215
7 *4:40 *4:41 7.90667
8 *4:39 *4:40 10.1132
9 *4:38 *4:39 7.90667
10 *4:37 *4:38 4.44345
11 *4:35 *4:37 7.90667
12 *4:34 *64:RN 7.90667
13 *4:33 *4:35 3.37107
14 *4:33 *4:34 7.90667
15 *4:32 *4:33 11.465
16 *4:30 *4:32 7.90667
17 *4:30 *4 30.7961
18 *4:29 *4:30 1.27038
19 *4:28 *4:29 7.90667
20 *4:27 *4:28 4.05204
21 *4:25 *4:27 7.90667
22 *4:24 *67:RN 7.90667
23 *4:23 *4:25 3.81114
24 *4:22 *4:24 0.63519
25 *4:21 *4:23 7.90667
26 *4:20 *4:22 7.90667
27 *4:19 *4:21 0.67534
28 *4:19 *4:20 16.8835
29 *4:17 *4:19 7.90667
30 *4:15 *65:RN 7.90667
31 *4:15 *4:17 0.63519
32 *4:14 *90:RN 7.90667
33 *4:14 *4:15 11.4334
34 *4:13 *4:14 1.90557
35 *4:11 *4:13 7.90667
36 *4:10 *73:RN 7.90667
37 *4:9 *4:11 8.10408
38 *4:8 *4:10 7.90667
39 *4:7 *4:9 7.90667
40 *4:6 *4:8 7.90667
41 *4:6 *4:7 15.252
42 *4:5 *4:6 5.08949
43 *4:4 *4:5 7.90667
44 *4:3 *4:4 3.37742
45 *4:2 *4:3 7.90667
46 *4:1 *4:2 0.636186
47 *68:RN *4:1 7.90667
*END

*D_NET *5 0.00184115

*CONN
*I *63:D I *C 12.9 24.225 *L 0.000388 *D SDFFRHQX1
*I *63:Q O *C 8.9 24.035 *L 0 *D SDFFRHQX1
*I *106:A I *C 8.9 26.315 *L 0.0012 *D INVX3
*P *5 O *C 0 24.985 *L 0

*CAP
1 *5:2 0.000248174
2 *5:3 0.000248174
3 *5:4 5.00888e-05
4 *5:5 0.000110195
5 *5:6 1.00178e-05
6 *5:7 7.01243e-05
7 *5:8 0.000552186
8 *5 0.000552186

*RES
1 *5:8 *5 30.0026
2 *5:7 *106:A 7.90667
3 *5:6 *63:Q 7.90667
4 *5:5 *5:8 7.90667
5 *5:5 *5:7 4.44345
6 *5:4 *5:6 0.634779
7 *5:4 *5:5 2.53911
8 *5:3 *5:4 7.90667
9 *5:2 *5:3 13.4843
10 *5:1 *5:2 7.90667
11 *63:D *5:1 7.90667
*END

*D_NET *6 0.00293908

*CONN
*I *64:D I *C 18.7 25.935 *L 0.000388 *D SDFFRHQX8
*I *104:A I *C 14.9 24.415 *L 0.00161 *D INVX4
*P *6 O *C 13.3 35.15 *L 0
*I *64:Q O *C 12.7 25.935 *L 0 *D SDFFRHQX8
*I *119:B I *C 11.1 22.705 *L 0.000789 *D OR4X6
*I *98:B I *C 8.9 20.995 *L 0.000285 *D CLKAND2X2

*CAP
1 *6:1 1.0097e-05
2 *6:2 1.0097e-05
3 *6:3 0.000236182
4 *6:4 0.000236182
5 *6:5 0.000100178
6 *6:6 3.00533e-05
7 *6:7 7.01243e-05
8 *6:8 9.92694e-05
9 *6:10 9.92694e-05
10 *6:11 0.000490362
11 *6 0.000460309
12 *6:13 3.00533e-05
13 *6:14 3.7226e-05
14 *6:15 0.000111678
15 *6:16 1.00178e-05
16 *6:17 7.44521e-05
17 *6:18 1.00178e-05
18 *6:19 0.000160284
19 *6:21 0.000160284
20 *6:22 2.48173e-05
21 *6:23 0.000161313
22 *6:25 0.000136495
23 *6:27 9.01599e-05
24 *6:28 9.01599e-05

*RES
1 *6:30 *98:B 7.90667
2 *6:29 *6:30 7.90667
3 *6:28 *6:29 7.90667
4 *6:27 *6:28 5.71301
5 *6:25 *6:27 7.90667
6 *6:24 *119:B 7.90667
7 *6:23 *6:25 7.41636
8 *6:23 *6:24 7.90667
9 *6:22 *6:23 1.34843
10 *6:21 *6:22 7.90667
11 *6:19 *6:21 10.1565
12 *6:18 *64:Q 7.90667
13 *6:17 *6:19 7.90667
14 *6:16 *6:18 0.634779
15 *6:15 *6:17 4.04529
16 *6:15 *6:16 7.90667
17 *6:14 *6:15 2.02264
18 *6:13 *6:14 7.90667
19 *6:11 *6:13 1.90434
20 *6:11 *6 29.5086
21 *6:10 *6:11 7.90667
22 *6:8 *6:10 5.39372
23 *6:7 *104:A 7.90667
24 *6:6 *6:8 7.90667
25 *6:5 *6:7 4.44345
26 *6:5 *6:6 1.90434
27 *6:4 *6:5 7.90667
28 *6:3 *6:4 12.8191
29 *6:2 *6:3 7.90667
30 *6:1 *6:2 0.63519
31 *64:D *6:1 7.90667
*END

*D_NET *7 0.00346685

*CONN
*I *119:C I *C 11.3 22.705 *L 0.000786 *D OR4X6
*I *101:B I *C 15.1 21.185 *L 0.000793 *D NOR2X2
*I *93:A I *C 12.3 17.765 *L 0.000291 *D CLKAND2X2
*I *108:A I *C 12.9 19.285 *L 0.00161 *D INVX4
*I *66:D I *C 14.5 15.675 *L 0.000388 *D SDFFRHQX8
*I *66:Q O *C 8.5 15.675 *L 0 *D SDFFRHQX8
*P *7 O *C 0 18.715 *L 0

*CAP
1 *7:1 1.00178e-05
2 *7:2 1.00178e-05
3 *7:3 2.48173e-05
4 *7:4 2.48173e-05
5 *7:5 5.00888e-05
6 *7:6 5.00888e-05
7 *7:7 3.7226e-05
8 *7:8 0.000210947
9 *7:9 0.000173721
10 *7:10 0.000120213
11 *7:11 2.00355e-05
12 *7:12 0.000200355
13 *7:13 2.00355e-05
14 *7:14 3.7226e-05
15 *7:15 0.000189045
16 *7:17 3.7226e-05
17 *7:19 0.000118748
18 *7:21 0.000135283
19 *7:22 9.84539e-06
20 *7:24 0.000135283
21 *7:25 0.00023367
22 *7:27 0.00023367
23 *7:29 9.84539e-06
24 *7:30 9.84539e-06
25 *7:31 0.000442744
26 *7:33 0.000442744
27 *7:34 0.000158991
28 *7:35 0.000158991
29 *7:36 8.06564e-05
30 *7 8.06564e-05

*RES
1 *7:36 *7 4.3824
2 *7:35 *7:36 7.90667
3 *7:34 *7:35 10.1515
4 *7:33 *7:34 7.90667
5 *7:31 *7:33 24.1966
6 *7:30 *66:Q 7.90667
7 *7:30 *7:31 7.90667
8 *7:29 *7:30 0.634115
9 *7:27 *7:29 7.90667
10 *7:26 *66:D 7.90667
11 *7:25 *7:27 12.7704
12 *7:24 *7:26 7.90667
13 *7:22 *7:25 7.90667
14 *7:21 *7:24 7.3934
15 *7:20 *108:A 7.90667
16 *7:19 *7:22 0.634115
17 *7:19 *7:21 7.90667
18 *7:17 *7:20 7.90667
19 *7:15 *7:19 6.97759
20 *7:15 *93:A 7.90667
21 *7:14 *7:17 2.02264
22 *7:13 *101:B 7.90667
23 *7:12 *7:15 5.07823
24 *7:12 *7:14 7.90667
25 *7:11 *7:13 1.26956
26 *7:10 *7:12 7.61734
27 *7:9 *7:11 7.90667
28 *7:8 *7:10 7.90667
29 *7:8 *7:9 9.43901
30 *7:7 *7:8 2.02264
31 *7:6 *7:7 7.90667
32 *7:5 *7:6 3.17389
33 *7:4 *7:5 7.90667
34 *7:3 *7:4 1.34843
35 *7:2 *7:3 7.90667
36 *7:1 *7:2 0.634779
37 *119:C *7:1 7.90667
*END

*D_NET *8 0.0054074

*CONN
*I *94:B I *C 11.3 8.835 *L 0.000793 *D NOR2X2
*I *100:B I *C 13.7 10.735 *L 0.000285 *D CLKAND2X2
*I *102:B I *C 10.5 12.445 *L 0.0024 *D NAND2X6
*I *119:D I *C 11.3 22.895 *L 0.00078 *D OR4X6
*P *8 O *C 0 18.525 *L 0
*I *65:Q O *C 17.5 24.225 *L 0 *D SDFFRHQX8
*I *65:SI I *C 24.5 24.415 *L 0.000388 *D SDFFRHQX8
*I *109:A I *C 24.5 26.125 *L 0.00241 *D INVX6

*CAP
1 *8:2 1.22984e-05
2 *8:3 1.22984e-05
3 *8:4 9.84539e-05
4 *8:5 9.84539e-05
5 *8:6 1.22984e-05
6 *8:7 0.00015988
7 *8:8 8.86085e-05
8 *8:9 0.000147581
9 *8:10 0.000394936
10 *8:12 0.000311336
11 *8:13 4.91938e-05
12 *8:15 5.00888e-06
13 *8:16 1.24087e-05
14 *8:17 4.91938e-05
15 *8:19 1.24087e-05
16 *8:21 1.50266e-05
17 *8:22 0.000240426
18 *8:24 1.50266e-05
19 *8:25 0.000240426
20 *8:26 0.000694886
21 *8:27 1.24087e-05
22 *8:28 0.000694886
23 *8:29 0.000397182
24 *8:30 1.00178e-05
25 *8:31 0.000384773
26 *8:33 1.00178e-05
27 *8:34 7.06792e-05
28 *8:36 6.20434e-06
29 *8:37 7.06792e-05
30 *8 6.20434e-06
31 *8:39 0.00043613
32 *8:40 0.00043613
33 *8:42 1.0097e-05
34 *8:44 0.00010097
35 *8:45 9.08733e-05

*RES
1 *8:45 *109:A 7.90667
2 *8:44 *65:SI 7.90667
3 *8:44 *8:45 5.71671
4 *8:42 *8:44 0.63519
5 *8:41 *65:Q 7.90667
6 *8:40 *8:42 7.90667
7 *8:39 *8:41 7.90667
8 *8:39 *8:40 23.6369
9 *8:37 *8:39 7.90667
10 *8:36 *8 0.337107
11 *8:34 *8:37 4.44633
12 *8:33 *8:36 7.90667
13 *8:32 *119:D 7.90667
14 *8:31 *8:34 7.90667
15 *8:30 *8:33 0.634779
16 *8:29 *8:32 7.90667
17 *8:29 *8:31 20.9029
18 *8:28 *8:30 7.90667
19 *8:27 *8:29 0.674215
20 *8:26 *8:28 37.756
21 *8:25 *8:27 7.90667
22 *8:24 *8:26 7.90667
23 *8:22 *8:25 15.2347
24 *8:21 *8:24 0.952168
25 *8:20 *102:B 7.90667
26 *8:19 *8:22 7.90667
27 *8:18 *8:21 7.90667
28 *8:17 *8:20 7.90667
29 *8:16 *8:19 0.674215
30 *8:15 *8:18 7.90667
31 *8:13 *8:17 2.68851
32 *8:12 *8:16 7.90667
33 *8:12 *8:15 0.317389
34 *8:11 *100:B 7.90667
35 *8:10 *8:13 7.90667
36 *8:10 *8:12 19.6619
37 *8:9 *8:11 7.90667
38 *8:8 *8:10 5.70704
39 *8:7 *8:9 8.06553
40 *8:7 *8:8 7.90667
41 *8:6 *8:7 0.672127
42 *8:5 *8:6 7.90667
43 *8:4 *8:5 6.34115
44 *8:3 *8:4 7.90667
45 *8:2 *8:3 0.672127
46 *8:1 *8:2 7.90667
47 *94:B *8:1 7.90667
*END

*D_NET *9 0.00131055

*CONN
*I *67:D I *C 28.5 24.225 *L 0.000388 *D SDFFRHQX8
*P *9 O *C 27.9 35.15 *L 0
*I *113:Y O *C 27.315 26.22 *L 0 *D INVX6

*CAP
1 *9:1 5.04852e-05
2 *9:2 5.04852e-05
3 *9:3 3.73826e-05
4 *9:4 3.73826e-05
5 *9:5 5.04852e-05
6 *9:6 0.000524181
7 *9 0.000473696
8 *9:8 3.73826e-05
9 *9:9 3.73826e-05
10 *9:10 5.04852e-06
11 *9:11 5.84565e-06
12 *9:12 7.97134e-07

*RES
1 *9:12 *113:Y 7.90667
2 *9:11 *9:12 0.0501466
3 *9:10 *9:11 0.317595
4 *9:9 *9:10 7.90667
5 *9:8 *9:9 2.02602
6 *9:6 *9:8 7.90667
7 *9:6 *9 30.1609
8 *9:5 *9:6 3.17595
9 *9:4 *9:5 7.90667
10 *9:3 *9:4 2.02602
11 *9:2 *9:3 7.90667
12 *9:1 *9:2 3.17595
13 *67:D *9:1 7.90667
*END

*D_NET *10 0.00093013

*CONN
*P *10 O *C 15.7 0 *L 0
*I *110:Y O *C 15.735 8.94 *L 0 *D INVXL

*CAP
1 *10 0.000463251
2 *10:1 0.000465065
3 *10:2 1.81362e-06

*RES
1 *10:2 *110:Y 7.90667
2 *10:1 *10:2 0.116811
3 *10 *10:1 29.8368
*END

*D_NET *11 0.00518581

*CONN
*I *86:A I *C 27.9 15.865 *L 0.000211 *D XNOR2X1
*I *103:B I *C 27.3 9.025 *L 0.00161 *D NOR2X4
*I *96:B I *C 25.3 10.735 *L 0.000285 *D CLKAND2X2
*P *11 O *C 19.5 0 *L 0
*I *74:A0 I *C 18.9 12.445 *L 0.0016 *D OAI31X4
*I *99:B I *C 14.9 10.735 *L 0.000285 *D CLKAND2X2
*I *91:B I *C 10.9 10.925 *L 0.000793 *D NOR2X2
*I *73:Q O *C 19.9 15.675 *L 0 *D SDFFRHQX8
*I *107:A I *C 19.9 17.575 *L 0.00241 *D INVX6
*I *102:A I *C 10.1 12.635 *L 0.00241 *D NAND2X6

*CAP
1 *11:1 0.000276591
2 *11:2 0.000276591
3 *11:3 3.74003e-05
4 *11:4 0.000162068
5 *11:5 9.2197e-05
6 *11:6 0.000473737
7 *11:7 9.2197e-05
8 *11:9 0.000361536
9 *11:12 1.02441e-05
10 *11:13 1.24668e-05
11 *11:14 9.2197e-05
12 *11:15 0.000578792
13 *11:16 0.000256103
14 *11:17 0.000297351
15 *11 0.000578792
16 *11:19 0.00017415
17 *11:20 4.9867e-05
18 *11:21 0.000543319
19 *11:22 1.24668e-05
20 *11:23 4.9867e-05
21 *11:24 9.84539e-06
22 *11:25 0.000295163
23 *11:26 1.24668e-05
24 *11:28 9.84539e-06
25 *11:30 4.91938e-05
26 *11:31 0.000102073
27 *11:35 8.86085e-05
28 *11:36 0.000102073
29 *11:38 8.86085e-05

*RES
1 *11:38 *102:A 7.90667
2 *11:36 *107:A 7.90667
3 *11:35 *11:38 5.70704
4 *11:31 *73:Q 7.90667
5 *11:31 *11:36 6.35937
6 *11:30 *11:35 7.90667
7 *11:29 *91:B 7.90667
8 *11:28 *99:B 7.90667
9 *11:27 *74:A0 7.90667
10 *11:26 *11:31 7.90667
11 *11:25 *11:30 2.68851
12 *11:25 *11:29 7.90667
13 *11:24 *11:28 0.634115
14 *11:23 *11:27 7.90667
15 *11:22 *11:26 0.675485
16 *11:21 *11:25 13.4425
17 *11:21 *11:24 7.90667
18 *11:20 *11:23 2.70194
19 *11:19 *11:22 7.90667
20 *11:17 *11:21 16.1747
21 *11:16 *11:20 7.90667
22 *11:16 *11:19 10.8152
23 *11:15 *11 35.9445
24 *11:14 *11:17 7.90667
25 *11:14 *11:16 5.08949
26 *11:13 *11:15 7.90667
27 *11:12 *11:14 0.636186
28 *11:9 *11:13 0.675485
29 *11:9 *11:12 7.90667
30 *11:8 *96:B 7.90667
31 *11:7 *103:B 7.90667
32 *11:6 *11:9 18.9136
33 *11:6 *11:8 7.90667
34 *11:5 *11:7 5.72567
35 *11:4 *11:6 6.75485
36 *11:4 *11:5 7.90667
37 *11:3 *11:4 2.02645
38 *11:2 *11:3 7.90667
39 *11:1 *11:2 17.177
40 *86:A *11:1 7.90667
*END

*D_NET *12 0.00324955

*CONN
*I *97:B I *C 16.5 13.775 *L 0.00021 *D OR2X2
*I *74:A2 I *C 19.7 12.635 *L 0.00161 *D OAI31X4
*I *86:B I *C 28.7 15.865 *L 0.000419 *D XNOR2X1
*P *12 O *C 38 14.915 *L 0
*I *111:Y O *C 28.925 17.48 *L 0 *D INVX8

*CAP
1 *12:3 5.90723e-05
2 *12:4 5.90723e-05
3 *12:5 0.000198963
4 *12:6 0.000759967
5 *12:7 0.000561004
6 *12:9 0.000112685
7 *12:11 0.000112685
8 *12:12 0.000517386
9 *12:13 6.14647e-05
10 *12:14 0.000517386
11 *12:15 0.000143197
12 *12:16 8.91437e-06
13 *12:17 8.17323e-05
14 *12:19 8.91437e-06
15 *12:20 1.24609e-05
16 *12:21 4.71757e-06
17 *12:22 1.24609e-05
18 *12 4.71757e-06
19 *12:24 5.04852e-06
20 *12:25 6.37707e-06
21 *12:26 1.32856e-06

*RES
1 *12:26 *111:Y 7.90667
2 *12:25 *12:26 0.0835777
3 *12:24 *12:25 0.317595
4 *12:22 *12:24 7.90667
5 *12:21 *12 0.333296
6 *12:20 *12:22 0.67534
7 *12:19 *12:21 7.90667
8 *12:17 *12:20 7.90667
9 *12:16 *12:19 0.633081
10 *12:15 *86:B 7.90667
11 *12:15 *12:17 5.08799
12 *12:14 *12:16 7.90667
13 *12:13 *12:15 3.81712
14 *12:12 *12:14 30.9078
15 *12:12 *12:13 7.90667
16 *12:11 *12:12 7.90667
17 *12:9 *12:11 6.99805
18 *12:8 *74:A2 7.90667
19 *12:7 *12:9 7.90667
20 *12:6 *12:8 7.90667
21 *12:6 *12:7 30.3968
22 *12:5 *12:6 10.7977
23 *12:4 *12:5 7.90667
24 *12:3 *12:4 3.80469
25 *12:2 *12:3 7.90667
26 *12:1 *12:2 7.90667
27 *97:B *12:1 7.90667
*END

*D_NET *13 0.00248547

*CONN
*I *103:A I *C 26.9 9.215 *L 0.00161 *D NOR2X4
*I *96:A I *C 25.7 10.925 *L 0.000291 *D CLKAND2X2
*I *112:A I *C 26.1 20.995 *L 0.00643 *D INVX16
*I *90:Q O *C 17.5 20.805 *L 0 *D DFFRHQX8

*CAP
1 *13:1 1.02441e-05
2 *13:2 1.02441e-05
3 *13:3 2.49335e-05
4 *13:4 2.49335e-05
5 *13:5 8.19529e-05
6 *13:6 8.19529e-05
7 *13:7 2.49335e-05
8 *13:8 4.9867e-05
9 *13:9 0.000529826
10 *13:10 2.49335e-05
11 *13:11 0.000539923
12 *13:13 1.0097e-05
13 *13:14 0.000535817
14 *13:17 0.000535817

*RES
1 *13:18 *90:Q 7.90667
2 *13:17 *13:18 7.90667
3 *13:14 *13:17 29.0396
4 *13:13 *112:A 7.90667
5 *13:12 *96:A 7.90667
6 *13:11 *13:14 7.90667
7 *13:11 *13:13 0.63519
8 *13:10 *13:12 7.90667
9 *13:9 *13:11 33.0623
10 *13:8 *13:10 1.35097
11 *13:8 *13:9 7.90667
12 *13:7 *13:8 1.35097
13 *13:6 *13:7 7.90667
14 *13:5 *13:6 5.08949
15 *13:4 *13:5 7.90667
16 *13:3 *13:4 1.35097
17 *13:2 *13:3 7.90667
18 *13:1 *13:2 0.636186
19 *103:A *13:1 7.90667
*END

*D_NET *14 0.00393159

*CONN
*I *68:D I *C 26.9 13.965 *L 0.000388 *D SDFFRHQX8
*I *92:B I *C 25.3 8.835 *L 0.00021 *D AND2X2
*I *116:B I *C 23.5 9.025 *L 0.00324 *D NAND2X8
*I *95:B I *C 23.1 10.925 *L 0.000793 *D NOR2X2
*I *68:Q O *C 20.9 13.965 *L 0 *D SDFFRHQX8
*I *97:A I *C 16.9 14.155 *L 0.000211 *D OR2X2
*I *99:A I *C 15.3 10.925 *L 0.000291 *D CLKAND2X2
*I *88:C I *C 18.7 9.215 *L 0.00161 *D NOR3X4
*I *62:A I *C 12.3 9.025 *L 0.00643 *D INVX16

*CAP
1 *14:1 1.02441e-05
2 *14:2 1.02441e-05
3 *14:3 1.24668e-05
4 *14:4 1.24668e-05
5 *14:5 0.000276591
6 *14:6 0.000276591
7 *14:7 8.72673e-05
8 *14:8 0.000199468
9 *14:9 1.02441e-05
10 *14:10 0.000137134
11 *14:11 1.02441e-05
12 *14:13 2.49335e-05
13 *14:16 0.000102441
14 *14:17 0.000256103
15 *14:18 0.000153662
16 *14:20 0.000137134
17 *14:22 0.000137134
18 *14:24 1.02441e-05
19 *14:25 1.02441e-05
20 *14:26 0.000249167
21 *14:28 0.000261465
22 *14:29 9.84539e-06
23 *14:30 1.22984e-05
24 *14:31 9.84539e-06
25 *14:32 0.000167372
26 *14:34 0.000167372
27 *14:35 4.91938e-05
28 *14:36 8.60891e-05
29 *14:37 6.89177e-05
30 *14:38 3.68953e-05
31 *14:39 7.87631e-05
32 *14:40 9.84539e-06
33 *14:41 0.000173525
34 *14:42 9.84539e-06
35 *14:43 9.84539e-06
36 *14:44 0.000173525
37 *14:45 0.000221372
38 *14:47 1.02441e-05
39 *14:48 0.000221372
40 *14:49 1.02441e-05
41 *14:50 9.84539e-06
42 *14:52 9.84539e-06

*RES
1 *14:52 *62:A 7.90667
2 *14:50 *14:52 0.634115
3 *14:49 *88:C 7.90667
4 *14:48 *14:50 7.90667
5 *14:47 *14:49 0.636186
6 *14:45 *14:48 12.0983
7 *14:44 *14:47 7.90667
8 *14:43 *99:A 7.90667
9 *14:42 *14:45 7.90667
10 *14:41 *14:44 9.43664
11 *14:40 *14:43 0.634115
12 *14:39 *14:42 0.634115
13 *14:39 *14:41 7.90667
14 *14:38 *14:40 7.90667
15 *14:37 *14:39 4.43881
16 *14:36 *14:38 2.01638
17 *14:36 *14:37 7.90667
18 *14:35 *14:36 2.68851
19 *14:34 *14:35 7.90667
20 *14:32 *14:34 10.78
21 *14:31 *97:A 7.90667
22 *14:30 *14:32 7.90667
23 *14:29 *14:31 0.634115
24 *14:28 *14:30 0.672127
25 *14:28 *14:29 7.90667
26 *14:26 *14:28 13.5063
27 *14:25 *68:Q 7.90667
28 *14:25 *14:26 7.90667
29 *14:24 *14:25 0.636186
30 *14:22 *14:24 7.90667
31 *14:21 *95:B 7.90667
32 *14:20 *14:22 7.43033
33 *14:19 *14:21 7.90667
34 *14:18 *14:20 7.90667
35 *14:17 *14:19 7.90667
36 *14:17 *14:18 9.54279
37 *14:16 *14:17 6.36186
38 *14:13 *14:16 7.90667
39 *14:12 *116:B 7.90667
40 *14:11 *92:B 7.90667
41 *14:10 *14:13 1.35097
42 *14:10 *14:12 7.90667
43 *14:9 *14:11 0.636186
44 *14:8 *14:10 6.07936
45 *14:8 *14:9 7.90667
46 *14:7 *14:8 4.72839
47 *14:6 *14:7 7.90667
48 *14:5 *14:6 17.177
49 *14:4 *14:5 7.90667
50 *14:3 *14:4 0.675485
51 *14:2 *14:3 7.90667
52 *14:1 *14:2 0.636186
53 *68:D *14:1 7.90667
*END

*D_NET *15 0.00453548

*CONN
*I *91:A I *C 10.7 10.735 *L 0.000793 *D NOR2X2
*I *93:B I *C 11.9 17.575 *L 0.000285 *D CLKAND2X2
*I *100:A I *C 14.1 10.925 *L 0.000291 *D CLKAND2X2
*I *116:A I *C 21.1 9.215 *L 0.00321 *D NAND2X8
*I *88:B I *C 18.5 9.025 *L 0.00161 *D NOR3X4
*I *67:Q O *C 22.5 24.225 *L 0 *D SDFFRHQX8
*I *114:A I *C 26.3 22.895 *L 0.00486 *D CLKINVX12

*CAP
1 *15:1 9.84539e-06
2 *15:2 9.84539e-06
3 *15:3 7.37907e-05
4 *15:4 7.37907e-05
5 *15:5 2.95362e-05
6 *15:6 0.00036471
7 *15:7 0.000135283
8 *15:8 0.000335174
9 *15:9 0.00039456
10 *15:11 0.000259277
11 *15:12 9.84539e-06
12 *15:13 0.000102441
13 *15:14 9.84539e-06
14 *15:15 0.000102441
15 *15:17 1.24668e-05
16 *15:18 0.000174535
17 *15:19 0.000199468
18 *15:20 1.02441e-05
19 *15:21 3.74003e-05
20 *15:23 1.02441e-05
21 *15:24 0.00073309
22 *15:27 0.00073309
23 *15:28 4.98434e-05
24 *15:29 0.0002866
25 *15:30 7.06792e-05
26 *15:31 0.000236756
27 *15:32 7.06792e-05

*RES
1 *15:33 *114:A 7.90667
2 *15:32 *67:Q 7.90667
3 *15:31 *15:33 7.90667
4 *15:30 *15:32 4.44633
5 *15:29 *15:31 12.8315
6 *15:29 *15:30 7.90667
7 *15:28 *15:29 2.70136
8 *15:27 *15:28 7.90667
9 *15:24 *15:27 45.775
10 *15:23 *88:B 7.90667
11 *15:22 *116:A 7.90667
12 *15:21 *15:24 7.90667
13 *15:20 *15:23 0.636186
14 *15:19 *15:22 7.90667
15 *15:19 *15:21 2.02645
16 *15:18 *15:20 7.90667
17 *15:18 *15:19 8.7813
18 *15:17 *15:18 0.675485
19 *15:15 *15:17 7.90667
20 *15:14 *100:A 7.90667
21 *15:13 *15:15 6.36186
22 *15:12 *15:14 0.634115
23 *15:11 *15:13 7.90667
24 *15:9 *15:12 7.90667
25 *15:9 *15:11 14.1348
26 *15:8 *93:B 7.90667
27 *15:7 *15:9 7.3934
28 *15:6 *15:8 21.5616
29 *15:6 *15:7 7.90667
30 *15:5 *15:6 1.90235
31 *15:4 *15:5 7.90667
32 *15:3 *15:4 4.03276
33 *15:2 *15:3 7.90667
34 *15:1 *15:2 0.634115
35 *91:A *15:1 7.90667
*END

*D_NET *16 0.000736846

*CONN
*I *63:SI I *C 13.9 24.415 *L 0.000388 *D SDFFRHQX1
*I *106:Y O *C 9.505 26.22 *L 0 *D INVX3

*CAP
1 *16:3 9.01599e-05
2 *16:4 9.01599e-05
3 *16:5 0.000272991
4 *16:6 0.000272991
5 *16:7 5.00888e-06
6 *16:8 5.27251e-06
7 *16:9 2.63625e-07

*RES
1 *16:9 *106:Y 7.90667
2 *16:8 *16:9 0.0167047
3 *16:7 *16:8 0.317389
4 *16:6 *16:7 7.90667
5 *16:5 *16:6 14.8327
6 *16:4 *16:5 7.90667
7 *16:3 *16:4 5.71301
8 *16:2 *16:3 7.90667
9 *16:1 *16:2 7.90667
10 *63:SI *16:1 7.90667
*END

*D_NET *17 0.000739874

*CONN
*I *64:SI I *C 19.7 26.125 *L 0.000388 *D SDFFRHQX8
*I *104:Y O *C 15.7 24.225 *L 0 *D INVX4

*CAP
1 *17:3 0.000111067
2 *17:4 0.000111067
3 *17:5 0.000248852
4 *17:6 0.000248852
5 *17:7 1.00178e-05
6 *17:8 1.00178e-05

*RES
1 *17:8 *104:Y 7.90667
2 *17:7 *17:8 0.634779
3 *17:6 *17:7 7.90667
4 *17:5 *17:6 13.4989
5 *17:4 *17:5 7.90667
6 *17:3 *17:4 6.98709
7 *17:2 *17:3 7.90667
8 *17:1 *17:2 7.90667
9 *64:SI *17:1 7.90667
*END

*D_NET *18 0.000343569

*CONN
*I *80:B I *C 16.9 19.475 *L 0.000796 *D NAND2X2
*I *101:Y O *C 15.1 20.615 *L 0 *D NOR2X2

*CAP
1 *18:3 6.01066e-05
2 *18:4 6.01066e-05
3 *18:5 0.000111678
4 *18:6 0.000111678

*RES
1 *18:7 *101:Y 7.90667
2 *18:6 *18:7 7.90667
3 *18:5 *18:6 6.06793
4 *18:4 *18:5 7.90667
5 *18:3 *18:4 3.80867
6 *18:2 *18:3 7.90667
7 *18:1 *18:2 7.90667
8 *80:B *18:1 7.90667
*END

*D_NET *19 0.000241195

*CONN
*I *78:A I *C 14.3 12.635 *L 0.0016 *D NAND2X4
*I *100:Y O *C 14.5 10.545 *L 0 *D CLKAND2X2

*CAP
1 *19:1 0.000108299
2 *19:2 0.000108299
3 *19:3 1.22984e-05
4 *19:4 1.22984e-05

*RES
1 *19:5 *100:Y 7.90667
2 *19:4 *19:5 7.90667
3 *19:3 *19:4 0.672127
4 *19:2 *19:3 7.90667
5 *19:1 *19:2 6.97527
6 *78:A *19:1 7.90667
*END

*D_NET *20 0.000319892

*CONN
*I *78:B I *C 14.7 12.445 *L 0.00161 *D NAND2X4
*I *99:Y O *C 15.7 10.545 *L 0 *D CLKAND2X2

*CAP
1 *20:2 6.14922e-05
2 *20:3 6.14922e-05
3 *20:4 9.84539e-05
4 *20:5 9.84539e-05

*RES
1 *20:7 *99:Y 7.90667
2 *20:6 *20:7 7.90667
3 *20:5 *20:6 7.90667
4 *20:4 *20:5 6.34115
5 *20:3 *20:4 7.90667
6 *20:2 *20:3 3.36064
7 *20:1 *20:2 7.90667
8 *78:B *20:1 7.90667
*END

*D_NET *21 0.000189883

*CONN
*I *79:A I *C 10.1 19.475 *L 0.0016 *D NAND2X4
*I *98:Y O *C 9.7 20.805 *L 0 *D CLKAND2X2

*CAP
1 *21:2 2.48173e-05
2 *21:3 2.48173e-05
3 *21:4 7.01243e-05
4 *21:5 7.01243e-05

*RES
1 *21:7 *98:Y 7.90667
2 *21:6 *21:7 7.90667
3 *21:5 *21:6 7.90667
4 *21:4 *21:5 4.44345
5 *21:3 *21:4 7.90667
6 *21:2 *21:3 1.34843
7 *21:1 *21:2 7.90667
8 *79:A *21:1 7.90667
*END

*D_NET *22 0.000656235

*CONN
*I *72:B0 I *C 12.3 14.345 *L 0.00161 *D OAI32X4
*I *97:Y O *C 17.3 13.965 *L 0 *D OR2X2

*CAP
1 *22:2 0.000307629
2 *22:3 0.000307629
3 *22:4 2.04882e-05
4 *22:5 2.04882e-05

*RES
1 *22:5 *97:Y 7.90667
2 *22:4 *22:5 1.27237
3 *22:3 *22:4 7.90667
4 *22:2 *22:3 16.8065
5 *22:1 *22:2 7.90667
6 *72:B0 *22:1 7.90667
*END

*D_NET *23 0.000469291

*CONN
*I *118:A0 I *C 26.7 10.545 *L 0.000391 *D AO22X4
*I *95:Y O *C 23.1 10.355 *L 0 *D NOR2X2

*CAP